/*--------------------------------*- C++ -*----------------------------------*\
  =========                 |
  \\      /  F ield         | OpenFOAM: The Open Source CFD Toolbox
   \\    /   O peration     | Website:  https://openfoam.org
    \\  /    A nd           | Version:  9
     \\/     M anipulation  |
\*---------------------------------------------------------------------------*/
FoamFile
{
    format      ascii;
    class       dictionary;
    location    "system";
    object      fvConstraints;
}
// * * * * * * * * * * * * * * * * * * * * * * * * * * * * * * * * * * * * * //

limitp
{
    type       limitPressure;

    min        1e4;
}

limitTgas
{
    type            limitTemperature;
    selectionMode   all;
    min             530;
    max             533;
    phase           gas;
}

limitTliquid
{
    type            limitTemperature;
    selectionMode   all;
    min             280;
    max             532;
    phase           liquid;
}

// ************************************************************************* //
